<?xml version="1.0" encoding="UTF-8"?>

<!-- generated on 2024-08-04 21:30:37 by Eclipse SUMO netedit Version 1.20.0
-->

<additional xmlns:xsi="http://www.w3.org/2001/XMLSchema-instance" xsi:noNamespaceSchemaLocation="http://sumo.dlr.de/xsd/additional_file.xsd">
    <!-- Other additionals -->
    <rerouter id="rerouter_for_veh0" edges="-117824437#0">
        <interval begin="0" end="86400" forVehicles="veh0">
            <reroute id="reroute_path0"/>
        </interval>
    </rerouter>
</additional>
