<?xml version="1.0" encoding="UTF-8"?>

<!-- generated on 2024-08-07 16:01:33 by Eclipse SUMO netedit Version 1.20.0
-->

<routes xmlns:xsi="http://www.w3.org/2001/XMLSchema-instance" xsi:noNamespaceSchemaLocation="http://sumo.dlr.de/xsd/routes_file.xsd">
    <!-- Routes -->
    <route id="r_0" edges="46696335#0 -46696335#2 46696339#2 219835823#6 219835823#9 219835823#14 219835823#15 219076292#0 219076292#2 219076292#3 219076292#5 219076292#6 219076292#7 219076292#10 219076292#12 219076292#13 -192728191#5 -192728191#4 -192728191#3 -192728191#2 -192728191#1 -192728191#0 417627665#3 417627664#0 417627664#2 417627664#4 417627664#6 417627664#8 522490642#1 522490642#2 522490642#3 522490642#5 522490642#6-AddedOnRampEdge 522490642#6 522490642#7 522490642#8 522490642#9 988283553#0 988283553#3 988283553#5 988283553#6 988283553#7 988283553#8 988283553#10 218723446#1 218723446#3 218723446#4 -46696269#1 -46696268#5 46696275#0 -46696263#3 -46696263#2 46696264#3 417437663 -46696255#2 -46696255#1 218722046#5 218722046#7 219835825#0 219835825#4 180069551#0 180069551#1 180069551#3 180069551#5 180069551#7 417646282#0 417646282#1 417646282#5 417646282#6 417646282#11 417646282#12 218906059#2 218906059#4 218906059#6 218906059#8 218906059#10 218906059#12 219076293#1 219076293#2 219076293#3 219076293#5 -417622695#6 -417622695#3 -417622695#1 -417622695#0 -117785738#6 -117785738#5 375138535#0 375138535#2 219076293#8 -46653307#12 -46653307#11 -46653307#9 -46653307#7 -46653307#6 -46653307#4 -46653307#3 -46653307#2 46653293#3 46653293#5 -46653291#1 417442005#0 417442005#1 46696338 417442012#0 417442012#1 219835827#6 219835827#10 219835826#1 219835826#4 46620936#1 46620936#3 46620936#4 -46620949#2 -46620949#1 -805827638#1 219835826#7 219835826#8 218900218#0 218900218#2 218900218#3 218900218#4 218723448#1 475472111#1 475472111#2 475472111#3 475472111#4 475472111#5 475472111#6 218723443#1 218723443#3 -46653299#2 417442002#0 -46653297#8 -46653297#6 -46653291#3 417442014#0 417442014#4 417442014#6 -46696330#6 46696324 -475635713#1 -475635713#0 -475635712 46717700#0 475635711#0 803491572#0 803491572#2 218906059#4 218906059#6 218906059#8 218906059#10 168106295#0 168106295#4 417666565#0 417666565#1 417666565#2 218448824#25 -417671891#2 -417671891#0 192728189#0 379526716#1"/>
</routes>
