<?xml version="1.0" encoding="UTF-8"?>

<!-- generated on 2024-08-04 19:00:09.315426 by osmWebWizard.py v1_20_0+0002-343658e7c64
<configuration>
    <net-file value="C:\Users\Yonas\Sumo\2024-08-04-19-00-01\osm.net.xml.gz"/>
    <output-trip-file value="C:\Users\Yonas\Sumo\2024-08-04-19-00-01\osm.passenger.trips.xml"/>
    <route-file value="C:\Users\Yonas\Sumo\2024-08-04-19-00-01\osm.passenger.rou.xml"/>
    <prefix value="veh"/>
    <trip-attributes value="departLane=&quot;best&quot;"/>
    <fringe-start-attributes value="departSpeed=&quot;max&quot;"/>
    <vehicle-class value="passenger"/>
    <lanes value="True"/>
    <fringe-factor value="5"/>
    <allow-fringe.min-length value="1000.0"/>
    <via-edge-types value="highway.motorway,highway.motorway_link,highway.trunk_link,highway.primary_link,highway.secondary_link,highway.tertiary_link"/>
    <min-distance value="300.0"/>
    <min-distance.fringe value="10.0"/>
    
    <validate value="True"/>
    <insertion-density value="12.0"/>
</configuration>
-->

<!-- generated on 2024-08-04 19:00:08 by Eclipse SUMO duarouter Version 1.20.0
<configuration xmlns:xsi="http://www.w3.org/2001/XMLSchema-instance" xsi:noNamespaceSchemaLocation="http://sumo.dlr.de/xsd/duarouterConfiguration.xsd">

    <input>
        <net-file value="C:\Users\Yonas\Sumo\2024-08-04-19-00-01\osm.net.xml.gz"/>
        <route-files value="C:\Users\Yonas\Sumo\2024-08-04-19-00-01\osm.passenger.trips.xml"/>
    </input>

    <output>
        <output-file value="C:\Users\Yonas\Sumo\2024-08-04-19-00-01\osm.passenger.trips.xml.tmp"/>
        <alternatives-output value="NUL"/>
        <write-trips value="true"/>
    </output>

    
    <time>
        <begin value="0.0"/>
        <end value="3600.0"/>
    </time>

    <report>
        <no-warnings value="true"/>
        <ignore-errors value="true"/>
        <no-step-log value="true"/>
    </report>

</configuration>
-->

<routes xmlns:xsi="http://www.w3.org/2001/XMLSchema-instance" xsi:noNamespaceSchemaLocation="http://sumo.dlr.de/xsd/routes_file.xsd">
    
    <vType id="veh_passenger" vClass="passenger"/>
    <route id="r_0" edges="-46696335#2 46696339#2 219835823#6 219835823#9 219835823#14 219835823#15 219076292#0 219076292#2 219076292#3 219076292#5 219076292#6 219076292#7 219076292#10 219076292#12 219076292#13 -192728191#5 -192728191#4 -192728191#3 -192728191#2 -192728191#1 -192728191#0 417627665#3 417627664#0 417627664#2 417627664#4 417627664#6 417627664#8 522490642#1 522490642#2 522490642#3 522490642#5 522490642#6-AddedOnRampEdge 522490642#6 522490642#7 522490642#8 522490642#9 988283553#0 988283553#3 988283553#5 988283553#6 988283553#7 988283553#8 988283553#10 218723446#1 218723446#3 218723446#4 -46696269#1 -46696268#5 46696275#0 -46696263#3 -46696263#2 46696264#3 417437663 -46696255#2 -46696255#1 218722046#5 218722046#7 219835825#0 219835825#4 180069551#0 180069551#1 180069551#3 180069551#5 180069551#7 417646282#0 417646282#1 417646282#5 417646282#6 417646282#11 417646282#12 218906059#2 218906059#4 218906059#6 218906059#8 218906059#10 218906059#12 219076293#1 219076293#2 219076293#3 219076293#5 -417622695#6 -417622695#3 -417622695#1 -417622695#0 -117785738#6 -117785738#5 375138535#0 375138535#2 219076293#8 -46653307#12 -46653307#11 -46653307#9 -46653307#7 -46653307#6 -46653307#4 -46653307#3 -46653307#2 46653293#3 46653293#5 -46653291#1 417442005#0 417442005#1 46696338 417442012#0 417442012#1 219835827#6 219835827#10 219835826#1 219835826#4 46620936#1 46620936#3 46620936#4 -46620949#2 -46620949#1 -805827638#1 219835826#7 219835826#8 218900218#0 218900218#2 218900218#3 218900218#4 218723448#1 475472111#1 475472111#2 475472111#3 475472111#4 475472111#5 475472111#6 218723443#1 218723443#3 -46653299#2 417442002#0 -46653297#8 -46653297#6 -46653291#3 417442014#0 417442014#4 417442014#6 -46696330#6 46696324 -475635713#1 -475635713#0 -475635712 46717700#0 475635711#0 803491572#0 803491572#2 218906059#4 218906059#6 218906059#8 218906059#10 168106295#0 168106295#4 417666565#0 417666565#1 417666565#2 218448824#25 -417671891#2 -417671891#0 192728189#0 379526716#1"/>
    <vehicle id="v_0" depart="0.00" route="r_0"/>
    <trip id="veh0" type="veh_passenger" depart="0.00" departLane="best" from="417622769" to="-117824437#0"/>
    <trip id="veh1" type="veh_passenger" depart="1.44" departLane="best" from="-46696320#5" to="-46653281#0"/>
    <trip id="veh2" type="veh_passenger" depart="2.89" departLane="best" from="-46653305#0" to="417671902#1"/>
    <trip id="veh3" type="veh_passenger" depart="4.33" departLane="best" from="475635714#4" to="-375138534#0"/>
    <trip id="veh4" type="veh_passenger" depart="5.78" departLane="best" from="180069551#5" to="117824452#0"/>
    <trip id="veh5" type="veh_passenger" depart="7.22" departLane="best" from="-46653271#2" to="218964975#4"/>
    <trip id="veh6" type="veh_passenger" depart="8.67" departLane="best" from="-117824446#1" to="-46620937"/>
    <trip id="veh7" type="veh_passenger" depart="10.11" departLane="best" from="417627673#0" to="219835824#3"/>
    <trip id="veh8" type="veh_passenger" depart="11.55" departLane="best" from="-46653276#2" to="417420148#2"/>
    <trip id="veh9" type="veh_passenger" depart="13.00" departLane="best" from="-46696332#6" to="-117785738#5"/>
    <trip id="veh10" type="veh_passenger" depart="14.44" departLane="best" from="46696330#2" to="46620945#1"/>
    <trip id="veh11" type="veh_passenger" depart="15.89" departLane="best" from="-635536373#2" to="-417627665#3"/>
    <trip id="veh12" type="veh_passenger" depart="17.33" departLane="best" from="803491572#2" to="-522435832#4"/>
    <trip id="veh14" type="veh_passenger" depart="20.22" departLane="best" from="46696330#7" to="46653306#2"/>
    <trip id="veh15" type="veh_passenger" depart="21.66" departLane="best" from="219076292#12" to="920879014#1"/>
    <trip id="veh16" type="veh_passenger" depart="23.11" departLane="best" from="117785734#3" to="219835827#0"/>
    <trip id="veh18" type="veh_passenger" depart="26.00" departLane="best" from="46717703#3" to="-375138546#6"/>
    <trip id="veh19" type="veh_passenger" depart="27.44" departLane="best" from="46620942" to="192728189#0"/>
    <trip id="veh20" type="veh_passenger" depart="28.89" departLane="best" from="-46653293#4" to="-46707745#0"/>
    <trip id="veh21" type="veh_passenger" depart="30.33" departLane="best" from="-375138528#2" to="-46653302"/>
    <trip id="veh22" type="veh_passenger" depart="31.77" departLane="best" from="-40365646#1" to="-46696330#4"/>
    <trip id="veh23" type="veh_passenger" depart="33.22" departLane="best" from="417622711#0" to="-805827637"/>
    <trip id="veh24" type="veh_passenger" depart="34.66" departLane="best" from="-914970856" to="-46620949#2"/>
    <trip id="veh25" type="veh_passenger" depart="36.11" departLane="best" from="46696267#0" to="702555687#2"/>
    <trip id="veh26" type="veh_passenger" depart="37.55" departLane="best" from="417627665#0" to="-417442005#5"/>
    <trip id="veh27" type="veh_passenger" depart="38.99" departLane="best" from="-417666565#1" to="46653306#1"/>
    <trip id="veh28" type="veh_passenger" depart="40.44" departLane="best" from="417646282#0" to="117785738#1"/>
    <trip id="veh29" type="veh_passenger" depart="41.88" departLane="best" from="988283553#6" to="417638563#1"/>
    <trip id="veh30" type="veh_passenger" depart="43.33" departLane="best" from="219835824#3" to="46618900"/>
    <trip id="veh32" type="veh_passenger" depart="46.22" departLane="best" from="-46653297#3" to="129731059#0"/>
    <trip id="veh33" type="veh_passenger" depart="47.66" departLane="best" from="-46717709#0" to="-46696268#4"/>
    <trip id="veh34" type="veh_passenger" depart="49.10" departLane="best" from="46620949#4" to="803282745"/>
    <trip id="veh35" type="veh_passenger" depart="50.55" departLane="best" from="46717716#2" to="-46717709#0"/>
    <trip id="veh36" type="veh_passenger" depart="51.99" departLane="best" from="417646244" to="117796520#2"/>
    <trip id="veh37" type="veh_passenger" depart="53.44" departLane="best" from="522325947#5" to="218448824#24"/>
    <trip id="veh38" type="veh_passenger" depart="54.88" departLane="best" from="46696264#2" to="-46677729#1"/>
    <trip id="veh39" type="veh_passenger" depart="56.33" departLane="best" from="219835826#4" to="46696263#0"/>
    <trip id="veh41" type="veh_passenger" depart="59.21" departLane="best" from="117796522#0" to="-46653276#0"/>
    <trip id="veh42" type="veh_passenger" depart="60.66" departLane="best" from="988283555#3" to="218964977#5"/>
    <trip id="veh43" type="veh_passenger" depart="62.10" departLane="best" from="-375138543#2" to="-192728191#0"/>
    <trip id="veh44" type="veh_passenger" depart="63.55" departLane="best" from="417434590#1" to="-417622769"/>
    <trip id="veh45" type="veh_passenger" depart="64.99" departLane="best" from="-46696264#4" to="180069551#7"/>
    <trip id="veh46" type="veh_passenger" depart="66.44" departLane="best" from="194455702#0" to="-117785738#6"/>
    <trip id="veh47" type="veh_passenger" depart="67.88" departLane="best" from="988283555#1" to="-219076293#1"/>
    <trip id="veh48" type="veh_passenger" depart="69.32" departLane="best" from="-117785742#3" to="-46653293#5"/>
    <trip id="veh49" type="veh_passenger" depart="70.77" departLane="best" from="417666602#2" to="219076294#9"/>
    <trip id="veh50" type="veh_passenger" depart="72.21" departLane="best" from="46696267#0" to="417638563#4"/>
    <trip id="veh51" type="veh_passenger" depart="73.66" departLane="best" from="417434593#0" to="194455693#3"/>
    <trip id="veh52" type="veh_passenger" depart="75.10" departLane="best" from="218448824#11" to="803639594"/>
    <trip id="veh53" type="veh_passenger" depart="76.55" departLane="best" from="-46717716#1" to="-46696263#3"/>
    <trip id="veh54" type="veh_passenger" depart="77.99" departLane="best" from="218723446#4" to="-417666588#0"/>
    <trip id="veh55" type="veh_passenger" depart="79.43" departLane="best" from="522325947#0" to="46717713#1"/>
    <trip id="veh56" type="veh_passenger" depart="80.88" departLane="best" from="-46708383#1" to="-417638563#0"/>
    <trip id="veh57" type="veh_passenger" depart="82.32" departLane="best" departSpeed="max" from="46676451#0" to="219835823#1"/>
    <trip id="veh58" type="veh_passenger" depart="83.77" departLane="best" from="46696243#0" to="219076293#2"/>
    <trip id="veh59" type="veh_passenger" depart="85.21" departLane="best" from="-117785727#1" to="-46717714"/>
    <trip id="veh60" type="veh_passenger" depart="86.66" departLane="best" from="-117785752#5" to="523170423#1"/>
    <trip id="veh61" type="veh_passenger" depart="88.10" departLane="best" from="46717717#1" to="46708384#3"/>
    <trip id="veh62" type="veh_passenger" depart="89.54" departLane="best" from="-46717699#1" to="-194455696#0"/>
    <trip id="veh63" type="veh_passenger" depart="90.99" departLane="best" from="46717717#1" to="-803489803"/>
    <trip id="veh64" type="veh_passenger" depart="92.43" departLane="best" from="375138532#1" to="218723443#8"/>
    <trip id="veh65" type="veh_passenger" depart="93.88" departLane="best" from="218906059#1" to="46676451#2-AddedOnRampEdge"/>
    <trip id="veh67" type="veh_passenger" depart="96.76" departLane="best" from="218683622#0" to="218722046#5"/>
    <trip id="veh68" type="veh_passenger" depart="98.21" departLane="best" from="46696264#2" to="46717713#4"/>
    <trip id="veh69" type="veh_passenger" depart="99.65" departLane="best" from="-184391024#0" to="46620950#1"/>
    <trip id="veh70" type="veh_passenger" depart="101.10" departLane="best" from="219076292#5" to="46653306#2"/>
    <trip id="veh71" type="veh_passenger" depart="102.54" departLane="best" from="46620940#3" to="46717704"/>
    <trip id="veh72" type="veh_passenger" depart="103.99" departLane="best" from="988283555#1" to="-417646282#10"/>
    <trip id="veh73" type="veh_passenger" depart="105.43" departLane="best" from="-417439635#3" to="-46653281#4"/>
    <trip id="veh74" type="veh_passenger" depart="106.87" departLane="best" from="522435832#5" to="-417420131#5"/>
    <trip id="veh75" type="veh_passenger" depart="108.32" departLane="best" from="218906059#2" to="417627648#3"/>
    <trip id="veh76" type="veh_passenger" depart="109.76" departLane="best" from="46653293#5" to="515476886#9"/>
    <trip id="veh77" type="veh_passenger" depart="111.21" departLane="best" from="46717700#0" to="-218906059#3"/>
    <trip id="veh78" type="veh_passenger" depart="112.65" departLane="best" from="46653306#5" to="417666602#0"/>
    <trip id="veh79" type="veh_passenger" depart="114.10" departLane="best" from="-46620950#5" to="-417442014#3"/>
    <trip id="veh80" type="veh_passenger" depart="115.54" departLane="best" from="679004811#1" to="-375138544#0"/>
    <trip id="veh81" type="veh_passenger" depart="116.98" departLane="best" from="218448824#6" to="46696244#0"/>
    <trip id="veh82" type="veh_passenger" depart="118.43" departLane="best" from="-46696330#9" to="417671902#1"/>
    <trip id="veh83" type="veh_passenger" depart="119.87" departLane="best" from="-375138546#3" to="-192743556#3"/>
    <trip id="veh84" type="veh_passenger" depart="121.32" departLane="best" from="-184391024#0" to="218448824#27"/>
    <trip id="veh85" type="veh_passenger" depart="122.76" departLane="best" from="46653293#3" to="417666604#0"/>
    <trip id="veh86" type="veh_passenger" depart="124.21" departLane="best" from="921534665#1" to="379526716#1"/>
    <trip id="veh87" type="veh_passenger" depart="125.65" departLane="best" departSpeed="max" from="117824444" to="635536373#0"/>
    <trip id="veh88" type="veh_passenger" depart="127.09" departLane="best" from="46717703#3" to="46677738#0"/>
    <trip id="veh89" type="veh_passenger" depart="128.54" departLane="best" from="-417671902#1" to="988283555#0"/>
    <trip id="veh90" type="veh_passenger" depart="129.98" departLane="best" from="180069551#5" to="-46696330#6"/>
    <trip id="veh91" type="veh_passenger" depart="131.43" departLane="best" from="-46677738#1" to="523170423#1"/>
    <trip id="veh92" type="veh_passenger" depart="132.87" departLane="best" from="194455702#0" to="46717703#1"/>
    <trip id="veh93" type="veh_passenger" depart="134.32" departLane="best" from="219076295#2" to="-192728191#5"/>
    <trip id="veh95" type="veh_passenger" depart="137.20" departLane="best" from="805827639#0" to="523170423#1"/>
    <trip id="veh97" type="veh_passenger" depart="140.09" departLane="best" departSpeed="max" from="218683625#0" to="46620950#4"/>
    <trip id="veh98" type="veh_passenger" depart="141.54" departLane="best" from="117824437#1" to="194455696#1"/>
    <trip id="veh99" type="veh_passenger" depart="142.98" departLane="best" from="117785734#3" to="-921534666#0"/>
    <trip id="veh100" type="veh_passenger" depart="144.43" departLane="best" from="-46696264#2" to="46696243#2"/>
    <trip id="veh101" type="veh_passenger" depart="145.87" departLane="best" from="218448824#12" to="184391024#1"/>
    <trip id="veh102" type="veh_passenger" depart="147.31" departLane="best" from="803491572#2" to="988283555#1"/>
    <trip id="veh103" type="veh_passenger" depart="148.76" departLane="best" from="219835824#10" to="46653291#0"/>
    <trip id="veh104" type="veh_passenger" depart="150.20" departLane="best" from="417627665#1" to="-46708382#1"/>
    <trip id="veh105" type="veh_passenger" depart="151.65" departLane="best" from="-805827638#1" to="379526717#0"/>
    <trip id="veh106" type="veh_passenger" depart="153.09" departLane="best" from="-219076293#2" to="46676451#2"/>
    <trip id="veh107" type="veh_passenger" depart="154.53" departLane="best" from="-194455694#2" to="417420098#0"/>
    <trip id="veh108" type="veh_passenger" depart="155.98" departLane="best" from="218723448#1" to="46717681#0"/>
    <trip id="veh109" type="veh_passenger" depart="157.42" departLane="best" from="-417638563#2" to="-804841142"/>
    <trip id="veh110" type="veh_passenger" depart="158.87" departLane="best" from="375138528#0" to="-417666603#1"/>
    <trip id="veh111" type="veh_passenger" depart="160.31" departLane="best" from="40365646#2" to="-417671891#0"/>
    <trip id="veh112" type="veh_passenger" depart="161.76" departLane="best" from="-46653305#0" to="-417437663"/>
    <trip id="veh113" type="veh_passenger" depart="163.20" departLane="best" from="475635714#0" to="-46677729#0"/>
    <trip id="veh114" type="veh_passenger" depart="164.64" departLane="best" from="-180069548" to="417420095#0"/>
    <trip id="veh115" type="veh_passenger" depart="166.09" departLane="best" from="-218964975#3" to="-679004812"/>
    <trip id="veh116" type="veh_passenger" depart="167.53" departLane="best" from="-46620944#2" to="46653281#1"/>
    <trip id="veh117" type="veh_passenger" depart="168.98" departLane="best" from="46653306#6" to="117796520#2"/>
    <trip id="veh118" type="veh_passenger" depart="170.42" departLane="best" from="417666571#2" to="46708384#3"/>
    <trip id="veh119" type="veh_passenger" depart="171.87" departLane="best" from="-46717709#2" to="46676451#2"/>
    <trip id="veh120" type="veh_passenger" depart="173.31" departLane="best" from="218906059#8" to="218448824#22"/>
    <trip id="veh121" type="veh_passenger" depart="174.75" departLane="best" from="-218964975#2" to="46620950#3"/>
    <trip id="veh122" type="veh_passenger" depart="176.20" departLane="best" from="46696264#2" to="-679004811#2"/>
    <trip id="veh123" type="veh_passenger" depart="177.64" departLane="best" from="475470489" to="46717717#1"/>
    <trip id="veh124" type="veh_passenger" depart="179.09" departLane="best" from="-914558347" to="-417638563#3"/>
    <trip id="veh126" type="veh_passenger" depart="181.98" departLane="best" from="417437658#0" to="988283553#0"/>
    <trip id="veh127" type="veh_passenger" depart="183.42" departLane="best" from="417638566" to="-117785740#0"/>
    <trip id="veh128" type="veh_passenger" depart="184.86" departLane="best" from="417652009#4" to="73989713#1"/>
    <trip id="veh129" type="veh_passenger" depart="186.31" departLane="best" from="-417622695#0" to="-417434598#0"/>
    <trip id="veh130" type="veh_passenger" depart="187.75" departLane="best" from="-417420148#2" to="219835827#2"/>
    <trip id="veh131" type="veh_passenger" depart="189.20" departLane="best" from="-46696274#1" to="417442002#2"/>
    <trip id="veh132" type="veh_passenger" depart="190.64" departLane="best" from="417622709#0" to="-46696264#1"/>
    <trip id="veh133" type="veh_passenger" depart="192.09" departLane="best" from="218683625#1" to="515476886#9"/>
    <trip id="veh135" type="veh_passenger" depart="194.97" departLane="best" from="-184391024#0" to="-46696327#2"/>
    <trip id="veh136" type="veh_passenger" depart="196.42" departLane="best" from="117785734#3" to="46677720"/>
    <trip id="veh137" type="veh_passenger" depart="197.86" departLane="best" from="417622718#0" to="-46696255#2"/>
    <trip id="veh138" type="veh_passenger" depart="199.31" departLane="best" from="46653307#10" to="219835826#8"/>
    <trip id="veh139" type="veh_passenger" depart="200.75" departLane="best" from="-219076293#1" to="475472111#1"/>
    <trip id="veh140" type="veh_passenger" depart="202.20" departLane="best" from="515476886#1" to="219835824#7"/>
    <trip id="veh142" type="veh_passenger" depart="205.08" departLane="best" from="-417627648#0" to="-417442005#5"/>
    <trip id="veh143" type="veh_passenger" depart="206.53" departLane="best" from="-46717699#2" to="515476886#10"/>
    <trip id="veh144" type="veh_passenger" depart="207.97" departLane="best" from="46696269#0" to="46717703#0"/>
    <trip id="veh145" type="veh_passenger" depart="209.42" departLane="best" departSpeed="max" from="515476886#0" to="-46620949#3"/>
    <trip id="veh146" type="veh_passenger" depart="210.86" departLane="best" from="-46677738#1" to="-417420098#2"/>
    <trip id="veh147" type="veh_passenger" depart="212.30" departLane="best" from="46696243#2" to="475472111#3"/>
    <trip id="veh148" type="veh_passenger" depart="213.75" departLane="best" from="-117824447#1" to="-417622704#3"/>
    <trip id="veh149" type="veh_passenger" depart="215.19" departLane="best" from="417627665#0" to="608019620"/>
    <trip id="veh150" type="veh_passenger" depart="216.64" departLane="best" from="46717706#5" to="921296494#1"/>
    <trip id="veh151" type="veh_passenger" depart="218.08" departLane="best" from="46696335#0" to="475470489"/>
    <trip id="veh152" type="veh_passenger" depart="219.53" departLane="best" from="-117796522#3" to="46653308#0"/>
    <trip id="veh153" type="veh_passenger" depart="220.97" departLane="best" from="522325947#4" to="674376955"/>
    <trip id="veh154" type="veh_passenger" depart="222.41" departLane="best" from="46696320#4" to="46717706#2"/>
    <trip id="veh155" type="veh_passenger" depart="223.86" departLane="best" from="46696335#0" to="-46696268#3"/>
    <trip id="veh156" type="veh_passenger" depart="225.30" departLane="best" from="46696253#6" to="-417434589"/>
    <trip id="veh157" type="veh_passenger" depart="226.75" departLane="best" from="-46653279#0" to="46696336#3"/>
    <trip id="veh158" type="veh_passenger" depart="228.19" departLane="best" from="218448824#17" to="-46717687#2"/>
    <trip id="veh159" type="veh_passenger" depart="229.64" departLane="best" from="46696268#5" to="46653293#3"/>
    <trip id="veh160" type="veh_passenger" depart="231.08" departLane="best" from="-117796522#0" to="-417733897"/>
    <trip id="veh161" type="veh_passenger" depart="232.52" departLane="best" from="-475635715#1" to="46717706#4"/>
    <trip id="veh162" type="veh_passenger" depart="233.97" departLane="best" from="-805307833" to="-46696330#8"/>
    <trip id="veh163" type="veh_passenger" depart="235.41" departLane="best" from="-417627648#0" to="117824437#0"/>
    <trip id="veh164" type="veh_passenger" depart="236.86" departLane="best" from="921296494#0" to="219076294#7"/>
    <trip id="veh165" type="veh_passenger" depart="238.30" departLane="best" from="702555687#1" to="-417434598#0"/>
    <trip id="veh166" type="veh_passenger" depart="239.75" departLane="best" from="804171185#2" to="-46696264#4"/>
    <trip id="veh167" type="veh_passenger" depart="241.19" departLane="best" from="417434589" to="194455693#3"/>
    <trip id="veh168" type="veh_passenger" depart="242.63" departLane="best" from="-46653293#2" to="-46717706#7"/>
    <trip id="veh169" type="veh_passenger" depart="244.08" departLane="best" from="417434593#0" to="218964977#5"/>
    <trip id="veh170" type="veh_passenger" depart="245.52" departLane="best" from="-117785740#3" to="375138546#3"/>
    <trip id="veh171" type="veh_passenger" depart="246.97" departLane="best" from="-46696244#1" to="46620951#2"/>
    <trip id="veh172" type="veh_passenger" depart="248.41" departLane="best" from="117785734#0" to="523170423#1"/>
    <trip id="veh173" type="veh_passenger" depart="249.86" departLane="best" from="219076292#3" to="-46653293#2"/>
    <trip id="veh174" type="veh_passenger" depart="251.30" departLane="best" from="46653307#12" to="417666602#5"/>
    <trip id="veh175" type="veh_passenger" depart="252.74" departLane="best" from="-804841176" to="-218906059#12"/>
    <trip id="veh176" type="veh_passenger" depart="254.19" departLane="best" from="-417652020#1" to="-522325947#1"/>
    <trip id="veh178" type="veh_passenger" depart="257.08" departLane="best" from="-46653271#2" to="-46708385"/>
    <trip id="veh179" type="veh_passenger" depart="258.52" departLane="best" from="-46717700#1" to="129731301#0"/>
    <trip id="veh180" type="veh_passenger" depart="259.97" departLane="best" departSpeed="max" from="117824444" to="-46707755#2"/>
    <trip id="veh181" type="veh_passenger" depart="261.41" departLane="best" from="-417442005#5" to="180069551#3"/>
    <trip id="veh182" type="veh_passenger" depart="262.85" departLane="best" from="702583908" to="417671902#2"/>
    <trip id="veh183" type="veh_passenger" depart="264.30" departLane="best" from="515476886#0-AddedOffRampEdge" to="-417442014#6"/>
    <trip id="veh184" type="veh_passenger" depart="265.74" departLane="best" from="-46708385" to="219835825#7"/>
    <trip id="veh185" type="veh_passenger" depart="267.19" departLane="best" from="-117785727#1" to="-46696338"/>
    <trip id="veh186" type="veh_passenger" depart="268.63" departLane="best" from="-417638569#1" to="218448824#27"/>
    <trip id="veh187" type="veh_passenger" depart="270.07" departLane="best" from="194455700#1" to="46620950#4"/>
    <trip id="veh188" type="veh_passenger" depart="271.52" departLane="best" from="218448824#6" to="515476886#3"/>
    <trip id="veh189" type="veh_passenger" depart="272.96" departLane="best" from="46696269#0" to="417666563"/>
    <trip id="veh190" type="veh_passenger" depart="274.41" departLane="best" from="-375138532#0" to="218969109#12"/>
    <trip id="veh191" type="veh_passenger" depart="275.85" departLane="best" from="417622704#0" to="-522435832#1"/>
    <trip id="veh192" type="veh_passenger" depart="277.30" departLane="best" from="-46707750#0" to="46676451#2"/>
    <trip id="veh193" type="veh_passenger" depart="278.74" departLane="best" from="417666574#0" to="46653281#3"/>
    <trip id="veh194" type="veh_passenger" depart="280.18" departLane="best" from="-46620937" to="-117796522#3"/>
    <trip id="veh195" type="veh_passenger" depart="281.63" departLane="best" from="46653308#0" to="218683622#3"/>
    <trip id="veh197" type="veh_passenger" depart="284.52" departLane="best" from="-129731380#2" to="417627648#0"/>
    <trip id="veh198" type="veh_passenger" depart="285.96" departLane="best" from="417734690" to="46620944#0"/>
    <trip id="veh199" type="veh_passenger" depart="287.41" departLane="best" from="-218722047#2" to="-46653308#1"/>
    <trip id="veh200" type="veh_passenger" depart="288.85" departLane="best" from="417646252" to="-117785738#3"/>
    <trip id="veh201" type="veh_passenger" depart="290.29" departLane="best" departSpeed="max" from="46676451#0" to="46677719#1"/>
    <trip id="veh202" type="veh_passenger" depart="291.74" departLane="best" from="417420148#0" to="192728189#0"/>
    <trip id="veh203" type="veh_passenger" depart="293.18" departLane="best" from="417666571#2" to="-804171183#2"/>
    <trip id="veh204" type="veh_passenger" depart="294.63" departLane="best" departSpeed="max" from="218959908#0" to="-192728191#5"/>
    <trip id="veh206" type="veh_passenger" depart="297.52" departLane="best" from="988283555#0" to="-46696272#1"/>
    <trip id="veh207" type="veh_passenger" depart="298.96" departLane="best" from="417666565#2" to="988283553#10"/>
    <trip id="veh208" type="veh_passenger" depart="300.40" departLane="best" from="417420095#0" to="803491572#2"/>
    <trip id="veh209" type="veh_passenger" depart="301.85" departLane="best" from="475635714#2" to="417442010"/>
    <trip id="veh210" type="veh_passenger" depart="303.29" departLane="best" from="-46620952" to="218964975#4"/>
    <trip id="veh212" type="veh_passenger" depart="306.18" departLane="best" departSpeed="max" from="515476886#0" to="46676451#1"/>
    <trip id="veh213" type="veh_passenger" depart="307.63" departLane="best" from="46677729#1" to="-417627673#0"/>
    <trip id="veh215" type="veh_passenger" depart="310.51" departLane="best" from="-219076293#2" to="46696337#0"/>
    <trip id="veh216" type="veh_passenger" depart="311.96" departLane="best" from="-46696273" to="-46717713#1"/>
    <trip id="veh217" type="veh_passenger" depart="313.40" departLane="best" from="46653299#0" to="-46620940#3"/>
    <trip id="veh218" type="veh_passenger" depart="314.85" departLane="best" from="46620944#3" to="-194455702#3"/>
    <trip id="veh219" type="veh_passenger" depart="316.29" departLane="best" from="-117824447#3" to="219076294#3"/>
    <trip id="veh220" type="veh_passenger" depart="317.74" departLane="best" from="166611665#0" to="-46620946#2"/>
    <trip id="veh221" type="veh_passenger" depart="319.18" departLane="best" from="180069551#0" to="515476886#9"/>
    <trip id="veh222" type="veh_passenger" depart="320.62" departLane="best" from="375138545#0" to="46620942"/>
    <trip id="veh224" type="veh_passenger" depart="323.51" departLane="best" from="803282747#0" to="46676451#2"/>
    <trip id="veh225" type="veh_passenger" depart="324.96" departLane="best" from="-46717685#1" to="803639593"/>
    <trip id="veh226" type="veh_passenger" depart="326.40" departLane="best" from="168106295#4" to="46676451#2"/>
    <trip id="veh227" type="veh_passenger" depart="327.84" departLane="best" from="219076294#2" to="417442002#0"/>
    <trip id="veh228" type="veh_passenger" depart="329.29" departLane="best" from="-194455694#0" to="117824447#3"/>
    <trip id="veh229" type="veh_passenger" depart="330.73" departLane="best" from="522435832#2" to="417671904#1"/>
    <trip id="veh230" type="veh_passenger" depart="332.18" departLane="best" departSpeed="max" from="117824444" to="-417646282#12"/>
    <trip id="veh231" type="veh_passenger" depart="333.62" departLane="best" from="218448824#25" to="-417442007#0"/>
    <trip id="veh232" type="veh_passenger" depart="335.07" departLane="best" from="417442007#1" to="-117824446#3"/>
    <trip id="veh233" type="veh_passenger" depart="336.51" departLane="best" from="117824446#2" to="417638569#0"/>
    <trip id="veh234" type="veh_passenger" depart="337.95" departLane="best" from="-417622695#3" to="218448824#26"/>
    <trip id="veh235" type="veh_passenger" depart="339.40" departLane="best" from="192728191#5" to="117785738#1"/>
    <trip id="veh236" type="veh_passenger" depart="340.84" departLane="best" from="46620949#6" to="-475635713#0"/>
    <trip id="veh237" type="veh_passenger" depart="342.29" departLane="best" departSpeed="max" from="46676451#0" to="117785738#1"/>